Version 4
SHEET 1 880 680
WIRE 256 224 256 192
WIRE 256 288 256 224
WIRE 96 416 96 384
WIRE 144 416 96 416
WIRE 256 416 256 368
WIRE 256 416 224 416
FLAG -32 208 0
FLAG -32 128 COM
FLAG 112 144 0
FLAG 256 96 COM
FLAG 96 304 Com
FLAG 336 224 0
FLAG 96 608 0
SYMBOL voltage -32 112 R0
WINDOW 123 0 0 Left 2
WINDOW 39 0 0 Left 2
SYMATTR InstName V1
SYMATTR Value 5
SYMBOL npn 192 96 R0
SYMATTR InstName Q1
SYMBOL voltage 208 144 R90
WINDOW 0 -32 56 VBottom 2
WINDOW 3 32 56 VTop 2
WINDOW 123 0 0 Left 2
WINDOW 39 0 0 Left 2
SYMATTR InstName V2
SYMATTR Value 2.5
SYMBOL res 352 208 R90
WINDOW 0 0 56 VBottom 2
WINDOW 3 32 56 VTop 2
SYMATTR InstName R1
SYMATTR Value 56k
SYMBOL res 240 272 R0
SYMATTR InstName R2
SYMATTR Value 56k
SYMBOL res 240 400 R90
WINDOW 0 0 56 VBottom 2
WINDOW 3 32 56 VTop 2
SYMATTR InstName R3
SYMATTR Value 150k
SYMBOL res 112 400 R180
WINDOW 0 36 76 Left 2
WINDOW 3 36 40 Left 2
SYMATTR InstName R4
SYMATTR Value 1K
SYMBOL diode 80 416 R0
SYMATTR InstName D1
SYMATTR Value 1N4148
SYMBOL diode 80 480 R0
SYMATTR InstName D2
SYMATTR Value 1N4148
SYMBOL diode 80 544 R0
SYMATTR InstName D3
SYMATTR Value 1N4148
TEXT -256 416 Left 2 !.op V1 4.8 5.2
